&clm_inparm
  create_crop_landunit = .true.
  fsurdat='/cluster/shared/noresm/inputdata_emerald/marlam/inputdata_CLM1PT_pan/surface_data/surfdata_1x1_Krokstranda_era_simyr2000_evergreen.nc'
  hist_mfilt = 20
  hist_nhtfrq = -8760
  hist_empty_htapes = .true.
  hist_fincl1 = 'TOTECOSYSC', 'TOTECOSYSN', 'TOTSOMC', 'TOTSOMN', 'TOTVEGC', 'TOTVEGN', 'TLAI', 'GPP', 'CPOOL', 'NPP', 'TWS','H2OSNO'
  use_bedrock = .true.
/
&ndepdyn_nml
  ndepmapalgo = 'nn'
/
&popd_streams
  popdensmapalgo = 'nn'
/
&light_streams
  lightngmapalgo = 'nn'
/
